64
7.125200 7.125200 7.125200
C 0 0 0
C 0 1.7813 1.7813
C 1.7813 0 1.7813
C 1.7813 1.7813 0
C 0.89065 0.89065 0.89065
C 0.89065 2.67195 2.67195
C 2.67195 0.89065 2.67195
C 2.67195 2.67195 0.89065
C 3.5626 0 0
C 3.5626 1.7813 1.7813
C 5.3439 0 1.7813
C 5.3439 1.7813 0
C 4.45325 0.89065 0.89065
C 4.45325 2.67195 2.67195
C 6.23455 0.89065 2.67195
C 6.23455 2.67195 0.89065
C 0 3.5626 0
C 0 5.3439 1.7813
C 1.7813 3.5626 1.7813
C 1.7813 5.3439 0
C 0.89065 4.45325 0.89065
C 0.89065 6.23455 2.67195
C 2.67195 4.45325 2.67195
C 2.67195 6.23455 0.89065
C 3.5626 3.5626 0
C 3.5626 5.3439 1.7813
C 5.3439 3.5626 1.7813
C 5.3439 5.3439 0
C 4.45325 4.45325 0.89065
C 4.45325 6.23455 2.67195
C 6.23455 4.45325 2.67195
C 6.23455 6.23455 0.89065
C 0 0 3.5626
C 0 1.7813 5.3439
C 1.7813 0 5.3439
C 1.7813 1.7813 3.5626
C 0.89065 0.89065 4.45325
C 0.89065 2.67195 6.23455
C 2.67195 0.89065 6.23455
C 2.67195 2.67195 4.45325
C 3.5626 0 3.5626
C 3.5626 1.7813 5.3439
C 5.3439 0 5.3439
C 5.3439 1.7813 3.5626
C 4.45325 0.89065 4.45325
C 4.45325 2.67195 6.23455
C 6.23455 0.89065 6.23455
C 6.23455 2.67195 4.45325
C 0 3.5626 3.5626
C 0 5.3439 5.3439
C 1.7813 3.5626 5.3439
C 1.7813 5.3439 3.5626
C 0.89065 4.45325 4.45325
C 0.89065 6.23455 6.23455
C 2.67195 4.45325 6.23455
C 2.67195 6.23455 4.45325
C 3.5626 3.5626 3.5626
C 3.5626 5.3439 5.3439
C 5.3439 3.5626 5.3439
C 5.3439 5.3439 3.5626
C 4.45325 4.45325 4.45325
C 4.45325 6.23455 6.23455
C 6.23455 4.45325 6.23455
C 6.23455 6.23455 4.45325
